OPT_V9/8ts_w_storgae_myc_NEW_PARAM/network_debug.txt
Pandapower Network Debug Info
==================================================

BUS:
          name  vn_kv type  zone  in_service   geo
0        Bus 8    0.4    b  None        True  None
1        Bus 9    0.4    b  None        True  None
2       Bus 10    0.4    b  None        True  None
3       Bus 11    0.4    b  None        True  None
4       Bus 16    0.4    b  None        True  None
5       Bus 17    0.4    b  None        True  None
6       Bus 18    0.4    b  None        True  None
7       Bus 19    0.4    b  None        True  None
8       Bus 20    0.4    b  None        True  None
9       Bus 21   15.0    b  None        True  None
10      Bus 22   15.0    b  None        True  None
11      Bus 23   15.0    b  None        True  None
12      Bus 24   15.0    b  None        True  None
13      Bus 25   15.0    b  None        True  None
14      Bus 26   15.0    b  None        True  None
15    Sub MV 2   15.0    b  None        True  None
16    Sub LV 2    0.4    b  None        True  None
17    Sub MV 5   15.0    b  None        True  None
18    Sub LV 5    0.4    b  None        True  None
19  Slack HV 0   70.0    b  None        True  None
20  Slack MV 0   15.0    b  None        True  None
21  Slack HV 1   70.0    b  None        True  None
22  Slack MV 1   15.0    b  None        True  None
--------------------------------------------------

LOAD:
           name  bus      p_mw    q_mvar  const_z_percent  const_i_percent  sn_mva  scaling  in_service type
0     Load 8 T1    0 -0.004168  0.000123              0.0              0.0     NaN      1.0        True  wye
1     Load 8 T2    0 -0.004010 -0.000089              0.0              0.0     NaN      1.0        True  wye
2     Load 8 T3    0 -0.005283 -0.000509              0.0              0.0     NaN      1.0        True  wye
3     Load 8 T4    0 -0.004810 -0.000844              0.0              0.0     NaN      1.0        True  wye
4     Load 8 T5    0 -0.003557 -0.000730              0.0              0.0     NaN      1.0        True  wye
5     Load 8 T6    0 -0.002990 -0.000096              0.0              0.0     NaN      1.0        True  wye
6     Load 8 T7    0 -0.003269 -0.000828              0.0              0.0     NaN      1.0        True  wye
7     Load 8 T8    0 -0.002466 -0.000069              0.0              0.0     NaN      1.0        True  wye
8     Load 9 T1    1 -0.003123  0.000413              0.0              0.0     NaN      1.0        True  wye
9     Load 9 T2    1 -0.003123  0.000116              0.0              0.0     NaN      1.0        True  wye
10    Load 9 T3    1 -0.003853  0.000192              0.0              0.0     NaN      1.0        True  wye
11    Load 9 T4    1 -0.003123  0.000200              0.0              0.0     NaN      1.0        True  wye
12    Load 9 T5    1 -0.003536  0.000090              0.0              0.0     NaN      1.0        True  wye
13    Load 9 T6    1 -0.004291 -0.000231              0.0              0.0     NaN      1.0        True  wye
14    Load 9 T7    1 -0.003123  0.000071              0.0              0.0     NaN      1.0        True  wye
15    Load 9 T8    1 -0.001838  0.000079              0.0              0.0     NaN      1.0        True  wye
16   Load 10 T1    2 -0.001950  0.000067              0.0              0.0     NaN      1.0        True  wye
17   Load 10 T2    2 -0.001950 -0.000084              0.0              0.0     NaN      1.0        True  wye
18   Load 10 T3    2 -0.001216 -0.000171              0.0              0.0     NaN      1.0        True  wye
19   Load 10 T4    2 -0.001950 -0.000513              0.0              0.0     NaN      1.0        True  wye
20   Load 10 T5    2 -0.002453 -0.000094              0.0              0.0     NaN      1.0        True  wye
21   Load 10 T6    2 -0.002466  0.000227              0.0              0.0     NaN      1.0        True  wye
22   Load 10 T7    2 -0.001950 -0.000565              0.0              0.0     NaN      1.0        True  wye
23   Load 10 T8    2 -0.003241  0.000000              0.0              0.0     NaN      1.0        True  wye
24   Load 11 T1    3 -0.004149 -0.000211              0.0              0.0     NaN      1.0        True  wye
25   Load 11 T2    3 -0.004308  0.000000              0.0              0.0     NaN      1.0        True  wye
26   Load 11 T3    3 -0.003232  0.000000              0.0              0.0     NaN      1.0        True  wye
27   Load 11 T4    3 -0.003504 -0.000223              0.0              0.0     NaN      1.0        True  wye
28   Load 11 T5    3 -0.003852  0.000638              0.0              0.0     NaN      1.0        True  wye
29   Load 11 T6    3 -0.003655  0.000000              0.0              0.0     NaN      1.0        True  wye
30   Load 11 T7    3 -0.003232 -0.000164              0.0              0.0     NaN      1.0        True  wye
31   Load 11 T8    3 -0.004038 -0.000086              0.0              0.0     NaN      1.0        True  wye
32   Load 16 T1    4 -0.001955  0.000049              0.0              0.0     NaN      1.0        True  wye
33   Load 16 T2    4 -0.002188 -0.000004              0.0              0.0     NaN      1.0        True  wye
34   Load 16 T3    4 -0.001059  0.000942              0.0              0.0     NaN      1.0        True  wye
35   Load 16 T4    4 -0.002835  0.000221              0.0              0.0     NaN      1.0        True  wye
36   Load 16 T5    4 -0.002344  0.001387              0.0              0.0     NaN      1.0        True  wye
37   Load 16 T6    4 -0.001955  0.001128              0.0              0.0     NaN      1.0        True  wye
38   Load 16 T7    4 -0.001058  0.000909              0.0              0.0     NaN      1.0        True  wye
39   Load 16 T8    4 -0.002853  0.001251              0.0              0.0     NaN      1.0        True  wye
40   Load 17 T1    5 -0.002704 -0.000437              0.0              0.0     NaN      1.0        True  wye
41   Load 17 T2    5 -0.002704 -0.000332              0.0              0.0     NaN      1.0        True  wye
42   Load 17 T3    5 -0.003372  0.001063              0.0              0.0     NaN      1.0        True  wye
43   Load 17 T4    5 -0.002704 -0.000640              0.0              0.0     NaN      1.0        True  wye
44   Load 17 T5    5 -0.003688  0.000925              0.0              0.0     NaN      1.0        True  wye
45   Load 17 T6    5 -0.002704 -0.000310              0.0              0.0     NaN      1.0        True  wye
46   Load 17 T7    5 -0.002921  0.000877              0.0              0.0     NaN      1.0        True  wye
47   Load 17 T8    5 -0.004614  0.001192              0.0              0.0     NaN      1.0        True  wye
48   Load 18 T1    6 -0.005070  0.000384              0.0              0.0     NaN      1.0        True  wye
49   Load 18 T2    6 -0.005070  0.000278              0.0              0.0     NaN      1.0        True  wye
50   Load 18 T3    6 -0.004397 -0.001112              0.0              0.0     NaN      1.0        True  wye
51   Load 18 T4    6 -0.005070  0.000000              0.0              0.0     NaN      1.0        True  wye
52   Load 18 T5    6 -0.004746  0.000000              0.0              0.0     NaN      1.0        True  wye
53   Load 18 T6    6 -0.005070  0.000398              0.0              0.0     NaN      1.0        True  wye
54   Load 18 T7    6 -0.003232 -0.001203              0.0              0.0     NaN      1.0        True  wye
55   Load 18 T8    6 -0.003232 -0.001236              0.0              0.0     NaN      1.0        True  wye
56   Load 19 T1    7 -0.005087 -0.000440              0.0              0.0     NaN      1.0        True  wye
57   Load 19 T2    7 -0.005269 -0.000566              0.0              0.0     NaN      1.0        True  wye
58   Load 19 T3    7 -0.004301 -0.000154              0.0              0.0     NaN      1.0        True  wye
59   Load 19 T4    7 -0.005847 -0.000451              0.0              0.0     NaN      1.0        True  wye
60   Load 19 T5    7 -0.004717 -0.000345              0.0              0.0     NaN      1.0        True  wye
61   Load 19 T6    7 -0.005918 -0.000207              0.0              0.0     NaN      1.0        True  wye
62   Load 19 T7    7 -0.003239 -0.000440              0.0              0.0     NaN      1.0        True  wye
63   Load 19 T8    7 -0.002499 -0.000003              0.0              0.0     NaN      1.0        True  wye
64   Load 20 T1    8 -0.004830 -0.000441              0.0              0.0     NaN      1.0        True  wye
65   Load 20 T2    8 -0.004417 -0.000278              0.0              0.0     NaN      1.0        True  wye
66   Load 20 T3    8 -0.006507 -0.001207              0.0              0.0     NaN      1.0        True  wye
67   Load 20 T4    8 -0.003197 -0.000641              0.0              0.0     NaN      1.0        True  wye
68   Load 20 T5    8 -0.004161 -0.000324              0.0              0.0     NaN      1.0        True  wye
69   Load 20 T6    8 -0.004002 -0.000341              0.0              0.0     NaN      1.0        True  wye
70   Load 20 T7    8 -0.003179 -0.000956              0.0              0.0     NaN      1.0        True  wye
71   Load 20 T8    8 -0.003830 -0.000638              0.0              0.0     NaN      1.0        True  wye
72   Load 21 T1    9  0.003196  0.009062              0.0              0.0     NaN      1.0        True  wye
73   Load 21 T2    9  0.005002  0.008974              0.0              0.0     NaN      1.0        True  wye
74   Load 21 T3    9  0.004647  0.011145              0.0              0.0     NaN      1.0        True  wye
75   Load 21 T4    9  0.005822  0.011185              0.0              0.0     NaN      1.0        True  wye
76   Load 21 T5    9  0.003574  0.008054              0.0              0.0     NaN      1.0        True  wye
77   Load 21 T6    9  0.003985  0.008491              0.0              0.0     NaN      1.0        True  wye
78   Load 21 T7    9  0.007298  0.010878              0.0              0.0     NaN      1.0        True  wye
79   Load 21 T8    9  0.008704  0.009690              0.0              0.0     NaN      1.0        True  wye
80   Load 22 T1   10  0.003541  0.005752              0.0              0.0     NaN      1.0        True  wye
81   Load 22 T2   10  0.003512  0.007302              0.0              0.0     NaN      1.0        True  wye
82   Load 22 T3   10  0.002600  0.005805              0.0              0.0     NaN      1.0        True  wye
83   Load 22 T4   10  0.004030  0.007251              0.0              0.0     NaN      1.0        True  wye
84   Load 22 T5   10  0.003763  0.007295              0.0              0.0     NaN      1.0        True  wye
85   Load 22 T6   10  0.004259  0.006950              0.0              0.0     NaN      1.0        True  wye
86   Load 22 T7   10  0.004784  0.006398              0.0              0.0     NaN      1.0        True  wye
87   Load 22 T8   10  0.003784  0.004451              0.0              0.0     NaN      1.0        True  wye
88   Load 23 T1   11  0.010111  0.003030              0.0              0.0     NaN      1.0        True  wye
89   Load 23 T2   11  0.010111  0.001394              0.0              0.0     NaN      1.0        True  wye
90   Load 23 T3   11  0.010111  0.002985              0.0              0.0     NaN      1.0        True  wye
91   Load 23 T4   11  0.005974  0.002389              0.0              0.0     NaN      1.0        True  wye
92   Load 23 T5   11  0.008316  0.003522              0.0              0.0     NaN      1.0        True  wye
93   Load 23 T6   11  0.008028  0.001393              0.0              0.0     NaN      1.0        True  wye
94   Load 23 T7   11  0.002311  0.003673              0.0              0.0     NaN      1.0        True  wye
95   Load 23 T8   11  0.003128  0.003323              0.0              0.0     NaN      1.0        True  wye
96   Load 24 T1   12  0.002849  0.006077              0.0              0.0     NaN      1.0        True  wye
97   Load 24 T2   12  0.000826  0.005925              0.0              0.0     NaN      1.0        True  wye
98   Load 24 T3   12  0.000719  0.005094              0.0              0.0     NaN      1.0        True  wye
99   Load 24 T4   12  0.001606  0.006933              0.0              0.0     NaN      1.0        True  wye
100  Load 24 T5   12  0.003176  0.005808              0.0              0.0     NaN      1.0        True  wye
101  Load 24 T6   12  0.005883  0.004864              0.0              0.0     NaN      1.0        True  wye
102  Load 24 T7   12  0.007730  0.005360              0.0              0.0     NaN      1.0        True  wye
103  Load 24 T8   12  0.007795  0.005519              0.0              0.0     NaN      1.0        True  wye
104  Load 25 T1   13  0.003228  0.005259              0.0              0.0     NaN      1.0        True  wye
105  Load 25 T2   13  0.003476  0.005850              0.0              0.0     NaN      1.0        True  wye
106  Load 25 T3   13  0.005032  0.005010              0.0              0.0     NaN      1.0        True  wye
107  Load 25 T4   13  0.005501  0.007550              0.0              0.0     NaN      1.0        True  wye
108  Load 25 T5   13  0.007262  0.007473              0.0              0.0     NaN      1.0        True  wye
109  Load 25 T6   13  0.003965  0.005967              0.0              0.0     NaN      1.0        True  wye
110  Load 25 T7   13  0.001496  0.007638              0.0              0.0     NaN      1.0        True  wye
111  Load 25 T8   13  0.004080  0.007143              0.0              0.0     NaN      1.0        True  wye
112  Load 26 T1   14  0.010111  0.003140              0.0              0.0     NaN      1.0        True  wye
113  Load 26 T2   14  0.010111  0.001981              0.0              0.0     NaN      1.0        True  wye
114  Load 26 T3   14  0.010111  0.000413              0.0              0.0     NaN      1.0        True  wye
115  Load 26 T4   14  0.010106  0.001038              0.0              0.0     NaN      1.0        True  wye
116  Load 26 T5   14  0.006964 -0.000835              0.0              0.0     NaN      1.0        True  wye
117  Load 26 T6   14  0.006932  0.002333              0.0              0.0     NaN      1.0        True  wye
118  Load 26 T7   14  0.001584  0.001688              0.0              0.0     NaN      1.0        True  wye
119  Load 26 T8   14  0.001121  0.000132              0.0              0.0     NaN      1.0        True  wye
--------------------------------------------------

EXT_GRID:
        name  bus  vm_pu  va_degree  slack_weight  in_service
0  ExtGrid 0   19    1.0        0.0           1.0        True
1  ExtGrid 1   21    1.0        0.0           1.0        True
--------------------------------------------------

LINE:
       name std_type  from_bus  to_bus  length_km  r_ohm_per_km  x_ohm_per_km  c_nf_per_km  g_us_per_km  max_i_ka   df  parallel  type  in_service   geo
0    Line 0     None        20      15   0.400000        0.5502         0.429          0.0          0.0      0.23  1.0         1  None        True  None
1    Line 7     None        22      17   1.100000        0.5502         0.429          0.0          0.0      0.23  1.0         1  None        True  None
2    Line 8     None        15       9   0.316228        0.5502         0.429          0.0          0.0      0.23  1.0         1  None        True  None
3   Line 17     None        17      12   0.141421        0.5502         0.429          0.0          0.0      0.23  1.0         1  None        True  None
4   Line 18     None        17      13   0.223607        0.5502         0.429          0.0          0.0      0.23  1.0         1  None        True  None
5   Line 20     None        16       0   0.136015        0.5502         0.429          0.0          0.0      0.23  1.0         1  None        True  None
6   Line 34     None        18       5   0.225610        0.5502         0.429          0.0          0.0      0.23  1.0         1  None        True  None
7   Line 36     None        18       7   0.196469        0.5502         0.429          0.0          0.0      0.23  1.0         1  None        True  None
8   Line 37     None        18       8   0.050000        0.5502         0.429          0.0          0.0      0.23  1.0         1  None        True  None
9   Line 38     None        10       9   0.141421        0.5502         0.429          0.0          0.0      0.23  1.0         1  None        True  None
10  Line 40     None        11      10   0.200000        0.5502         0.429          0.0          0.0      0.23  1.0         1  None        True  None
11  Line 43     None        14      13   0.200000        0.5502         0.429          0.0          0.0      0.23  1.0         1  None        True  None
12  Line 44     None         1       0   0.172047        0.5502         0.429          0.0          0.0      0.23  1.0         1  None        True  None
13  Line 46     None         3       0   0.194165        0.5502         0.429          0.0          0.0      0.23  1.0         1  None        True  None
14  Line 47     None         2       1   0.263059        0.5502         0.429          0.0          0.0      0.23  1.0         1  None        True  None
15  Line 52     None         8       4   0.353836        0.5502         0.429          0.0          0.0      0.23  1.0         1  None        True  None
16  Line 53     None         6       5   0.253180        0.5502         0.429          0.0          0.0      0.23  1.0         1  None        True  None
--------------------------------------------------

TRAFO:
                  name std_type  hv_bus  lv_bus  sn_mva  vn_hv_kv  vn_lv_kv  vk_percent  vkr_percent  pfe_kw  i0_percent  shift_degree tap_side  tap_neutral  tap_min  tap_max  tap_step_percent  tap_step_degree  tap_pos tap_changer_type  id_characteristic_table  tap_dependency_table  parallel   df  in_service
0  MV/LV Transformer 2     None      15      16    10.0      15.0       0.4        0.01         0.01    0.01        0.01           0.0     None          NaN      NaN      NaN               NaN              NaN      NaN              NaN                     <NA>                 False         1  1.0        True
1  MV/LV Transformer 5     None      17      18    10.0      15.0       0.4        0.01         0.01    0.01        0.01           0.0     None          NaN      NaN      NaN               NaN              NaN      NaN              NaN                     <NA>                 False         1  1.0        True
2  Slack Transformer 0     None      19      20    40.0      70.0      15.0        0.01         0.01    0.01        0.01           0.0     None          NaN      NaN      NaN               NaN              NaN      NaN              NaN                     <NA>                 False         1  1.0        True
3  Slack Transformer 1     None      21      22    40.0      70.0      15.0        0.01         0.01    0.01        0.01           0.0     None          NaN      NaN      NaN               NaN              NaN      NaN              NaN                     <NA>                 False         1  1.0        True
--------------------------------------------------

RES_BUS:
       vm_pu  va_degree      p_mw    q_mvar
0   1.005364   0.239582 -0.002466 -0.000069
1   1.008296   0.374649 -0.001838  0.000079
2   1.011193   0.503113 -0.003241  0.000000
3   1.008081   0.355178 -0.004038 -0.000086
4   1.003311   0.301315 -0.002853  0.001251
5   1.006034   0.271051 -0.004614  0.001192
6   1.009650   0.334123 -0.003232 -0.001236
7   1.001667   0.077861 -0.002499 -0.000003
8   1.001043   0.060021 -0.003830 -0.000638
9   0.999959   0.001091  0.008704  0.009690
10  0.999955   0.001138  0.003784  0.004451
11  0.999952   0.001163  0.003128  0.003323
12  0.999976   0.002688  0.007795  0.005519
13  0.999974   0.002800  0.004080  0.007143
14  0.999974   0.002779  0.001121  0.000132
15  0.999982   0.000857  0.000000  0.000000
16  0.999982   0.000857  0.000000  0.000000
17  0.999980   0.002699  0.000000  0.000000
18  0.999981   0.002700  0.000000  0.000000
19  1.000000   0.000000 -0.004150 -0.022464
20  1.000000   0.000003  0.000000  0.000000
21  1.000000   0.000000  0.003931 -0.018423
22  1.000000   0.000002  0.000000  0.000000
--------------------------------------------------

RES_LINE:
    p_from_mw   q_from_mvar   p_to_mw  q_to_mvar         pl_mw       ql_mvar  i_from_ka   i_to_ka      i_ka  vm_from_pu  va_from_degree  vm_to_pu  va_to_degree  loading_percent
0    0.004140  1.846397e-02 -0.004140  -0.018464  3.502289e-07  2.730793e-07   0.000728  0.000728  0.000728    1.000000        0.000003  0.999982      0.000857         0.316663
1   -0.003941  1.442333e-02  0.003942  -0.014423  6.013563e-07  4.688874e-07   0.000576  0.000576  0.000576    1.000000        0.000002  0.999980      0.002699         0.250219
2    0.015617  1.746469e-02 -0.015616  -0.017464  4.244697e-07  3.309660e-07   0.000902  0.000902  0.000902    0.999982        0.000857  0.999959      0.001091         0.392080
3    0.007795  5.519153e-03 -0.007795  -0.005519  3.154729e-08  2.459794e-08   0.000368  0.000368  0.000368    0.999980        0.002699  0.999976      0.002688         0.159836
4    0.005201  7.274944e-03 -0.005201  -0.007275  4.373018e-08  3.409714e-08   0.000344  0.000344  0.000344    0.999980        0.002699  0.999974      0.002800         0.149658
5   -0.011487 -9.017713e-07  0.011549   0.000049  6.171921e-05  4.812348e-05   0.016580  0.016580  0.016580    0.999982        0.000857  1.005364      0.239582         7.208891
6   -0.007788  6.463970e-07  0.007835   0.000036  4.706068e-05  3.669399e-05   0.011242  0.011242  0.011242    0.999981        0.002700  1.006034      0.271051         4.887659
7   -0.002495 -2.104478e-07  0.002499   0.000003  4.204591e-06  3.278389e-06   0.003601  0.003601  0.003601    0.999981        0.002700  1.001667      0.077861         1.565548
8   -0.006664  6.284170e-04  0.006672  -0.000622  7.704307e-06  6.007175e-06   0.009662  0.009662  0.009662    0.999981        0.002700  1.001043      0.060021         4.200810
9   -0.006912 -7.773970e-03  0.006912   0.007774  3.742442e-08  2.918044e-08   0.000400  0.000400  0.000400    0.999955        0.001138  0.999959      0.001091         0.174089
10  -0.003128 -3.322648e-03  0.003128   0.003323  1.018618e-08  7.942330e-09   0.000176  0.000176  0.000176    0.999952        0.001163  0.999955      0.001138         0.076373
11  -0.001121 -1.322907e-04  0.001121   0.000132  6.227699e-10  4.855840e-10   0.000043  0.000043  0.000043    0.999974        0.002779  0.999974      0.002800         0.018884
12   0.005070 -8.619280e-05 -0.005055   0.000098  1.496135e-05  1.166561e-05   0.007258  0.007258  0.007258    1.008296        0.374649  1.005364      0.239582         3.155831
13   0.004038  8.635105e-05 -0.004028  -0.000078  1.071995e-05  8.358520e-06   0.005783  0.005783  0.005783    1.008081        0.355178  1.005364      0.239582         2.514561
14   0.003241  1.991372e-09 -0.003232   0.000007  9.293323e-06  7.246157e-06   0.004626  0.004626  0.004626    1.011193        0.503113  1.008296      0.374649         2.011455
15  -0.002842  1.260511e-03  0.002853  -0.001251  1.173429e-05  9.149419e-06   0.004482  0.004482  0.004482    1.001043        0.060021  1.003311      0.301315         1.948851
16   0.003232  1.235585e-03 -0.003222  -0.001228  1.022414e-05  7.971934e-06   0.004946  0.004946  0.004946    1.009650        0.334123  1.006034      0.271051         2.150553
--------------------------------------------------

RES_TRAFO:
    p_hv_mw  q_hv_mvar   p_lv_mw     q_lv_mvar    pl_mw  ql_mvar   i_hv_ka   i_lv_ka  vm_hv_pu  va_hv_degree  vm_lv_pu  va_lv_degree  loading_percent
0 -0.011477   0.000999  0.011487  9.017456e-07  0.00001    0.001  0.000443  0.016580  0.999982      0.000857  0.999982      0.000857         0.115207
1 -0.016937   0.001629  0.016947 -6.288529e-04  0.00001    0.001  0.000655  0.024478  0.999980      0.002699  0.999981      0.002700         0.170156
2  0.004150   0.022464 -0.004140 -1.846397e-02  0.00001    0.004  0.000188  0.000728  1.000000      0.000000  1.000000      0.000003         0.057110
3 -0.003931   0.018423  0.003941 -1.442333e-02  0.00001    0.004  0.000155  0.000576  1.000000      0.000000  1.000000      0.000002         0.047095
--------------------------------------------------

RES_EXT_GRID:
       p_mw    q_mvar
0  0.004150  0.022464
1 -0.003931  0.018423
--------------------------------------------------

RES_LOAD:
         p_mw    q_mvar
0   -0.000000  0.000000
1   -0.000000 -0.000000
2   -0.000000 -0.000000
3   -0.000000 -0.000000
4   -0.000000 -0.000000
5   -0.000000 -0.000000
6   -0.000000 -0.000000
7   -0.002466 -0.000069
8   -0.000000  0.000000
9   -0.000000  0.000000
10  -0.000000  0.000000
11  -0.000000  0.000000
12  -0.000000  0.000000
13  -0.000000 -0.000000
14  -0.000000  0.000000
15  -0.001838  0.000079
16  -0.000000  0.000000
17  -0.000000 -0.000000
18  -0.000000 -0.000000
19  -0.000000 -0.000000
20  -0.000000 -0.000000
21  -0.000000  0.000000
22  -0.000000 -0.000000
23  -0.003241  0.000000
24  -0.000000 -0.000000
25  -0.000000  0.000000
26  -0.000000  0.000000
27  -0.000000 -0.000000
28  -0.000000  0.000000
29  -0.000000  0.000000
30  -0.000000 -0.000000
31  -0.004038 -0.000086
32  -0.000000  0.000000
33  -0.000000 -0.000000
34  -0.000000  0.000000
35  -0.000000  0.000000
36  -0.000000  0.000000
37  -0.000000  0.000000
38  -0.000000  0.000000
39  -0.002853  0.001251
40  -0.000000 -0.000000
41  -0.000000 -0.000000
42  -0.000000  0.000000
43  -0.000000 -0.000000
44  -0.000000  0.000000
45  -0.000000 -0.000000
46  -0.000000  0.000000
47  -0.004614  0.001192
48  -0.000000  0.000000
49  -0.000000  0.000000
50  -0.000000 -0.000000
51  -0.000000  0.000000
52  -0.000000  0.000000
53  -0.000000  0.000000
54  -0.000000 -0.000000
55  -0.003232 -0.001236
56  -0.000000 -0.000000
57  -0.000000 -0.000000
58  -0.000000 -0.000000
59  -0.000000 -0.000000
60  -0.000000 -0.000000
61  -0.000000 -0.000000
62  -0.000000 -0.000000
63  -0.002499 -0.000003
64  -0.000000 -0.000000
65  -0.000000 -0.000000
66  -0.000000 -0.000000
67  -0.000000 -0.000000
68  -0.000000 -0.000000
69  -0.000000 -0.000000
70  -0.000000 -0.000000
71  -0.003830 -0.000638
72   0.000000  0.000000
73   0.000000  0.000000
74   0.000000  0.000000
75   0.000000  0.000000
76   0.000000  0.000000
77   0.000000  0.000000
78   0.000000  0.000000
79   0.008704  0.009690
80   0.000000  0.000000
81   0.000000  0.000000
82   0.000000  0.000000
83   0.000000  0.000000
84   0.000000  0.000000
85   0.000000  0.000000
86   0.000000  0.000000
87   0.003784  0.004451
88   0.000000  0.000000
89   0.000000  0.000000
90   0.000000  0.000000
91   0.000000  0.000000
92   0.000000  0.000000
93   0.000000  0.000000
94   0.000000  0.000000
95   0.003128  0.003323
96   0.000000  0.000000
97   0.000000  0.000000
98   0.000000  0.000000
99   0.000000  0.000000
100  0.000000  0.000000
101  0.000000  0.000000
102  0.000000  0.000000
103  0.007795  0.005519
104  0.000000  0.000000
105  0.000000  0.000000
106  0.000000  0.000000
107  0.000000  0.000000
108  0.000000  0.000000
109  0.000000  0.000000
110  0.000000  0.000000
111  0.004080  0.007143
112  0.000000  0.000000
113  0.000000  0.000000
114  0.000000  0.000000
115  0.000000  0.000000
116  0.000000 -0.000000
117  0.000000  0.000000
118  0.000000  0.000000
119  0.001121  0.000132
--------------------------------------------------

BUS_GEODATA:
        x      y
0    11.0   48.0
1    25.0   38.0
2    51.0   42.0
3     0.0   64.0
4   129.0  138.0
5   105.0   88.0
6   130.0   92.0
7    81.0  115.0
8   103.0  114.0
9    10.0   70.0
10   20.0   80.0
11   40.0   80.0
12   90.0  120.0
13  120.0  120.0
14  120.0  100.0
15    0.0   40.0
16    0.5   39.5
17  100.0  110.0
18  100.5  109.5
19    0.0    0.0
20    0.5   -0.5
21  100.0    0.0
22  100.5   -0.5
--------------------------------------------------
